[General]
network = mmt.src.RIP_DistanceVector
sim-time-limit = 35s